Version 4
SHEET 1 880 852
WIRE -240 -32 -336 -32
WIRE -112 -32 -160 -32
WIRE 48 -32 -112 -32
WIRE 256 -32 48 -32
WIRE 384 -32 352 -32
WIRE 448 -32 384 -32
WIRE 576 -32 448 -32
WIRE 688 -32 576 -32
WIRE -112 0 -112 -32
WIRE 688 0 688 -32
WIRE -336 16 -336 -32
WIRE 448 16 448 -32
WIRE 576 16 576 -32
WIRE 384 48 384 -32
WIRE 48 64 48 -32
WIRE 112 64 48 64
WIRE 272 64 272 16
WIRE 272 64 192 64
WIRE -112 96 -112 64
WIRE 272 112 272 64
WIRE 384 112 272 112
WIRE 448 112 448 80
WIRE 576 112 576 80
WIRE 688 128 688 80
WIRE -336 144 -336 96
WIRE 48 144 48 64
WIRE 112 144 48 144
WIRE 272 144 272 112
WIRE 272 144 176 144
WIRE 272 208 272 144
WIRE 272 480 272 288
FLAG 272 480 0
FLAG -112 96 0
FLAG -336 144 0
FLAG 448 112 0
FLAG 576 112 0
FLAG 576 -32 vin
FLAG 48 -32 vin_unsafe
FLAG -336 -32 batt
FLAG 688 128 0
FLAG 272 144 pgate
SYMBOL pmos 352 16 M270
SYMATTR InstName M1
SYMATTR Value FDS4953
SYMBOL res 208 48 R90
WINDOW 0 0 56 VBottom 2
WINDOW 3 32 56 VTop 2
SYMATTR InstName R1
SYMATTR Value 2Meg
SYMBOL res 288 304 R180
WINDOW 0 36 76 Left 2
WINDOW 3 36 40 Left 2
SYMATTR InstName R3
SYMATTR Value 1Meg
SYMBOL res -144 -48 R90
WINDOW 0 0 56 VBottom 2
WINDOW 3 32 56 VTop 2
SYMATTR InstName R2
SYMATTR Value 0.5
SYMBOL cap -128 0 R0
SYMATTR InstName C2
SYMATTR Value 1nF
SYMATTR SpiceLine Rser=1m
SYMBOL voltage -336 0 R0
WINDOW 123 0 0 Left 0
WINDOW 39 24 124 Left 2
SYMATTR SpiceLine Rser=10m
SYMATTR InstName V1
SYMATTR Value 14
SYMBOL cap 432 16 R0
SYMATTR InstName C3
SYMATTR Value 680µF
SYMATTR SpiceLine Rser=100m
SYMBOL cap 560 16 R0
SYMATTR InstName C4
SYMATTR Value 1µF
SYMATTR SpiceLine Rser=10m
SYMBOL res 672 -16 R0
SYMATTR InstName R5
SYMATTR Value 10k
SYMBOL cap 176 128 R90
WINDOW 0 0 32 VBottom 2
WINDOW 3 32 32 VTop 2
SYMATTR InstName C1
SYMATTR Value 2.2µ
SYMBOL cap 368 48 R0
SYMATTR InstName C5
SYMATTR Value 100n
TEXT -232 -200 Left 2 !.tran 0 5 0 100u uic
