Version 4
SHEET 1 880 852
WIRE -112 -128 -672 -128
WIRE -240 -32 -336 -32
WIRE -112 -32 -112 -128
WIRE -112 -32 -160 -32
WIRE -32 -32 -112 -32
WIRE 16 -32 -32 -32
WIRE 48 -32 16 -32
WIRE 256 -32 48 -32
WIRE 368 -32 352 -32
WIRE 448 -32 368 -32
WIRE 576 -32 448 -32
WIRE 688 -32 576 -32
WIRE -112 0 -112 -32
WIRE 688 0 688 -32
WIRE -336 16 -336 -32
WIRE 448 16 448 -32
WIRE 576 16 576 -32
WIRE 368 32 368 -32
WIRE 48 64 48 -32
WIRE 112 64 48 64
WIRE 272 64 272 16
WIRE 272 64 192 64
WIRE -672 112 -672 -128
WIRE 448 112 448 80
WIRE 576 112 576 80
WIRE 688 128 688 80
WIRE -336 144 -336 96
WIRE 48 144 48 64
WIRE 112 144 48 144
WIRE 272 144 272 64
WIRE 272 144 176 144
WIRE 368 144 368 96
WIRE 368 144 272 144
WIRE -672 208 -672 192
WIRE -528 208 -672 208
WIRE -400 208 -448 208
WIRE 272 208 272 144
WIRE -672 224 -672 208
WIRE -32 224 -32 -32
WIRE -32 224 -352 224
WIRE 16 240 16 -32
WIRE 16 240 -64 240
WIRE 96 240 16 240
WIRE 16 256 16 240
WIRE -400 272 -400 208
WIRE -240 272 -400 272
WIRE 96 272 96 240
WIRE -64 288 -64 240
WIRE -352 304 -352 224
WIRE 64 336 16 336
WIRE 96 336 64 336
WIRE -672 352 -672 288
WIRE -64 352 -64 288
WIRE 64 352 64 336
WIRE -96 368 -208 368
WIRE 48 384 -32 384
WIRE -352 400 -352 384
WIRE -288 400 -352 400
WIRE -240 400 -240 272
WIRE -192 400 -240 400
WIRE -96 400 -192 400
WIRE 48 400 48 384
WIRE 64 400 48 400
WIRE 272 400 272 288
WIRE 272 400 64 400
WIRE -288 416 -288 400
WIRE -208 416 -208 368
WIRE -208 416 -288 416
WIRE -352 432 -352 400
WIRE -192 480 -192 400
WIRE -160 480 -192 480
WIRE 64 480 64 400
WIRE 64 480 -80 480
WIRE -64 512 -64 416
WIRE -352 544 -352 512
FLAG -336 144 0
FLAG 448 112 0
FLAG 576 112 0
FLAG 576 -32 vin
FLAG 48 -32 vin_unsafe
FLAG -336 -32 batt
FLAG 688 128 0
FLAG 272 144 pgate
FLAG -352 544 0
FLAG -672 352 0
FLAG -672 208 ref
FLAG -64 512 0
FLAG 64 352 0
FLAG -64 288 opVcc
SYMBOL pmos 352 16 M270
SYMATTR InstName M1
SYMATTR Value FDS4953
SYMBOL res 208 48 R90
WINDOW 0 0 56 VBottom 2
WINDOW 3 32 56 VTop 2
SYMATTR InstName R1
SYMATTR Value 100k
SYMBOL res 288 304 R180
WINDOW 0 36 76 Left 2
WINDOW 3 36 40 Left 2
SYMATTR InstName R3
SYMATTR Value 470k
SYMBOL cap 176 128 R90
WINDOW 0 0 32 VBottom 2
WINDOW 3 32 32 VTop 2
SYMATTR InstName C1
SYMATTR Value 2.2µF
SYMBOL res -144 -48 R90
WINDOW 0 0 56 VBottom 2
WINDOW 3 32 56 VTop 2
SYMATTR InstName R2
SYMATTR Value 0.1
SYMBOL voltage -336 0 R0
WINDOW 123 0 0 Left 0
WINDOW 39 24 124 Left 2
SYMATTR SpiceLine Rser=10m
SYMATTR InstName V1
SYMATTR Value PULSE(0 14 0 1 1 0.1 3)
SYMBOL cap 432 16 R0
SYMATTR InstName C3
SYMATTR Value 680µF
SYMATTR SpiceLine Rser=100m
SYMBOL cap 560 16 R0
SYMATTR InstName C4
SYMATTR Value 1µF
SYMATTR SpiceLine Rser=10m
SYMBOL res 672 -16 R0
SYMATTR InstName R5
SYMATTR Value 10k
SYMBOL res -368 288 R0
SYMATTR InstName R6
SYMATTR Value 1.8Meg
SYMBOL res -368 416 R0
SYMATTR InstName R7
SYMATTR Value 220k
SYMBOL cap 352 32 R0
SYMATTR InstName C2
SYMATTR Value 100nF
SYMBOL References\\LT1634-1.25 -672 256 R0
SYMATTR InstName U1
SYMBOL res -688 96 R0
SYMATTR InstName R9
SYMATTR Value 100k
SYMBOL Comparators\\LT1017 -64 384 R0
SYMATTR InstName U2
SYMBOL cap 80 272 R0
SYMATTR InstName C6
SYMATTR Value 100nF
SYMBOL res -432 192 R90
WINDOW 0 0 56 VBottom 2
WINDOW 3 32 56 VTop 2
SYMATTR InstName R4
SYMATTR Value 22k
SYMBOL res -64 464 R90
WINDOW 0 0 56 VBottom 2
WINDOW 3 32 56 VTop 2
SYMATTR InstName R8
SYMATTR Value 1Meg
TEXT -232 -200 Left 2 !.tran 0 5 0 100u uic
